# cl cd tracing for wbnp0722
4
# body wing pylon nacell
1 108
1 109 
1 110
1 111
1 112 
1 113 
1 114 
1 115  
1 128 
1 129 
1 130 
1 131 
1 225 
1 226 
1 227 
1 228 
1 250 
1 251
1 252
1 253
1 254
1 255
1 256
1 257
1 258
1 259
1 260
2 185
2 186 
2 187 
2 188 
2 189 
2 190 
2 191 
2 201 
2 202 
2 203 
2 211 
2 212 
2 216 
2 217 
2 218 
2 222 
2 223 
2 224 
2 229 
2 240 
2 241
2 242
2 243
2 244
2 245
2 246
2 247
2 248  
2 249 
3 138 
3 139 
3 140 
3 141 
3 160 
3 161 
3 162 
3 180 
3 181 
3 182 
3 204 
3 205 
3 207 
3 208 
3 209 
3 210
3 230 
3 231
3 232
3 233
3 234
3 235
3 236
3 237
3 238  
3 239 
4 116 
4 117 
4 118 
4 119 
4 120 
4 121 
4 122
4 123 
4 124 
4 125 
4 126  
4 127
4 132 
4 133 
4 134 
4 135 
4 136 
4 137 
4 142 
4 143 
4 144
4 145 
4 146 
4 147 
4 148
4 149 
4 150 
4 151 
4 152 
4 153 
4 154 
4 155 
4 156 
4 157 
4 158
4 159
4 163 
4 164
4 165 
4 166 
4 167 
4 168
4 169 
4 170 
4 171
4 175
4 176
4 177
4 178
4 179
4 183
4 184
4 192
4 193
4 194
4 195 
4 196 
4 197 
4 198
4 199
4 200
4 213 
4 214 
4 215
4 219 
4 220 
4 221 
